grid_simulations/no_EVs/Result_no_EVs/output_voltage_end.csv
# Result_no_EVs/output_voltage_end.csv run at 2000-01-02 00:00:00 EST on 963 nodes
node_name,voltA_mag,voltA_angle,voltB_mag,voltB_angle,voltC_mag,voltC_angle
SourceBus,6668.395609,0.000000,6668.395609,4.188790,6668.395609,2.094395
Bus1,252.112607,-0.524246,252.105077,3.664573,252.133589,1.570370
Bus2,252.104457,-0.524233,252.096023,3.664572,252.130923,1.570371
Bus3,252.103603,-0.524232,252.095073,3.664572,252.130643,1.570371
Bus4,252.102802,-0.524230,252.094184,3.664572,252.130382,1.570371
Bus5,252.102104,-0.524229,252.093409,3.664572,252.130153,1.570371
Bus6,252.101005,-0.524227,252.092187,3.664571,252.129794,1.570371
Bus7,252.026140,-0.524106,252.009011,3.664559,252.105305,1.570378
Bus8,252.022787,-0.524100,252.005285,3.664559,252.104209,1.570378
Bus9,252.019996,-0.524096,252.002185,3.664558,252.103296,1.570378
Bus10,252.017547,-0.524092,251.999463,3.664558,252.102495,1.570379
Bus11,252.015719,-0.524089,251.997433,3.664558,252.101897,1.570379
Bus12,252.014004,-0.524086,251.995527,3.664558,252.101336,1.570379
Bus13,252.012949,-0.524084,251.994355,3.664557,252.100991,1.570379
Bus14,252.010323,-0.524080,251.991437,3.664557,252.100132,1.570379
Bus15,251.989048,-0.524045,251.967799,3.664554,252.093172,1.570381
Bus16,251.989048,-0.524045,251.967799,3.664554,252.093172,1.570381
Bus17,251.963249,-0.524004,251.939134,3.664549,252.084733,1.570383
Bus18,251.989048,-0.524045,251.967799,3.664554,252.093172,1.570381
Bus19,251.961474,-0.524001,251.937162,3.664549,252.084152,1.570384
Bus20,251.989048,-0.524045,251.967799,3.664554,252.093172,1.570381
Bus21,251.959481,-0.523997,251.934947,3.664549,252.083500,1.570384
Bus22,251.989048,-0.524045,251.967799,3.664554,252.093172,1.570381
Bus23,251.956235,-0.523992,251.931341,3.664548,252.082439,1.570384
Bus24,251.989048,-0.524045,251.967799,3.664554,252.093172,1.570381
Bus25,251.950331,-0.523983,251.924781,3.664547,252.080507,1.570384
Bus26,251.989048,-0.524045,251.967799,3.664554,252.093172,1.570381
Bus27,251.935198,-0.523968,251.924827,3.664547,252.080673,1.570385
Bus28,251.893946,-0.523878,251.840861,3.664566,252.050447,1.570370
Bus29,251.989048,-0.524045,251.967799,3.664554,252.093172,1.570381
Bus30,251.934920,-0.523967,251.924828,3.664547,252.080676,1.570385
Bus31,251.931407,-0.523964,251.924838,3.664546,252.080714,1.570385
Bus32,251.878936,-0.523850,251.818520,3.664571,252.042444,1.570366
Bus33,251.989048,-0.524045,251.967799,3.664554,252.093172,1.570381
Bus34,251.934284,-0.523967,251.924830,3.664546,252.080683,1.570385
Bus35,251.931279,-0.523964,251.924839,3.664546,252.080716,1.570385
Bus36,251.879262,-0.523849,251.788768,3.664601,252.042533,1.570364
Bus37,251.823988,-0.523801,251.779687,3.664561,252.015454,1.570404
Bus38,251.989048,-0.524045,251.967799,3.664554,252.093172,1.570381
Bus39,251.931094,-0.523964,251.924839,3.664546,252.080718,1.570385
Bus40,251.879263,-0.523849,251.788670,3.664601,252.042534,1.570364
Bus41,251.879360,-0.523849,251.779830,3.664609,252.042560,1.570364
Bus42,251.785857,-0.523766,251.752740,3.664553,251.996724,1.570431
Bus43,251.823988,-0.523801,251.779687,3.664561,252.015454,1.570404
Bus44,251.989048,-0.524045,251.967799,3.664554,252.093172,1.570381
Bus45,251.930858,-0.523963,251.924840,3.664546,252.080720,1.570385
Bus46,251.879263,-0.523849,251.788625,3.664601,252.042534,1.570364
Bus47,251.879595,-0.523848,251.758323,3.664630,252.042625,1.570362
Bus48,251.757044,-0.523741,251.732377,3.664548,251.982571,1.570451
Bus49,251.823988,-0.523801,251.779687,3.664561,252.015454,1.570404
Bus50,251.989048,-0.524045,251.967799,3.664554,252.093172,1.570381
Bus51,251.930281,-0.523963,251.924842,3.664546,252.080727,1.570385
Bus52,251.879264,-0.523849,251.788578,3.664601,252.042534,1.570364
Bus53,251.752890,-0.523737,251.729441,3.664547,251.980531,1.570454
Bus54,251.757044,-0.523741,251.732377,3.664548,251.982571,1.570451
Bus55,251.823988,-0.523801,251.779687,3.664561,252.015454,1.570404
Bus56,251.989048,-0.524045,251.967799,3.664554,252.093172,1.570381
Bus57,251.929788,-0.523962,251.924843,3.664546,252.080732,1.570385
Bus58,251.879264,-0.523849,251.788533,3.664601,252.042534,1.570364
Bus59,251.734072,-0.523720,251.716142,3.664543,251.971288,1.570467
Bus60,251.757044,-0.523741,251.732377,3.664548,251.982571,1.570451
Bus61,251.823988,-0.523801,251.779687,3.664561,252.015454,1.570404
Bus62,251.989048,-0.524045,251.967799,3.664554,252.093172,1.570381
Bus63,251.927422,-0.523960,251.924850,3.664546,252.080758,1.570385
Bus64,251.879265,-0.523849,251.788506,3.664601,252.042534,1.570364
Bus65,251.730968,-0.523717,251.713368,3.664544,251.969168,1.570469
Bus66,251.718578,-0.523705,251.716188,3.664542,251.971457,1.570468
Bus67,251.757044,-0.523741,251.732377,3.664548,251.982571,1.570451
Bus68,251.823988,-0.523801,251.779687,3.664561,252.015454,1.570404
Bus69,251.989048,-0.524045,251.967799,3.664554,252.093172,1.570381
Bus70,251.919059,-0.523952,251.924875,3.664546,252.080849,1.570386
Bus71,251.879265,-0.523849,251.788453,3.664601,252.042534,1.570364
Bus72,251.694302,-0.523684,251.680593,3.664550,251.944128,1.570490
Bus73,251.717657,-0.523704,251.716191,3.664542,251.971467,1.570468
Bus74,251.711925,-0.523698,251.716208,3.664542,251.971530,1.570468
Bus75,251.757044,-0.523741,251.732377,3.664548,251.982571,1.570451
Bus76,251.823988,-0.523801,251.779687,3.664561,252.015454,1.570404
Bus77,251.989048,-0.524045,251.967799,3.664554,252.093172,1.570381
Bus78,251.879268,-0.523849,251.788186,3.664601,252.042535,1.570364
Bus79,251.681521,-0.523673,251.669169,3.664552,251.935400,1.570497
Bus80,251.757044,-0.523741,251.732377,3.664548,251.982571,1.570451
Bus81,251.823988,-0.523801,251.779687,3.664561,252.015454,1.570404
Bus82,251.989048,-0.524045,251.967799,3.664554,252.093172,1.570381
Bus83,251.879279,-0.523849,251.787177,3.664602,252.042538,1.570364
Bus84,251.678732,-0.523670,251.666675,3.664552,251.933495,1.570499
Bus85,251.757044,-0.523741,251.732377,3.664548,251.982571,1.570451
Bus86,251.823988,-0.523801,251.779687,3.664561,252.015454,1.570404
Bus87,251.989048,-0.524045,251.967799,3.664554,252.093172,1.570381
Bus88,251.673076,-0.523665,251.661620,3.664553,251.929633,1.570502
Bus89,251.757044,-0.523741,251.732377,3.664548,251.982571,1.570451
Bus90,251.823988,-0.523801,251.779687,3.664561,252.015454,1.570404
Bus91,251.989048,-0.524045,251.967799,3.664554,252.093172,1.570381
Bus92,251.667742,-0.523660,251.656852,3.664554,251.925990,1.570505
Bus93,251.823988,-0.523801,251.779687,3.664561,252.015454,1.570404
Bus94,251.989048,-0.524045,251.967799,3.664554,252.093172,1.570381
Bus95,251.664642,-0.523657,251.654081,3.664555,251.923873,1.570507
Bus96,251.823988,-0.523801,251.779687,3.664561,252.015454,1.570404
Bus97,251.989048,-0.524045,251.967799,3.664554,252.093172,1.570381
Bus98,251.662594,-0.523656,251.652250,3.664555,251.922475,1.570508
Bus99,251.823988,-0.523801,251.779687,3.664561,252.015454,1.570404
Bus100,251.989048,-0.524045,251.967799,3.664554,252.093172,1.570381
Bus101,251.659767,-0.523653,251.649723,3.664556,251.920544,1.570510
Bus102,251.823988,-0.523801,251.779687,3.664561,252.015454,1.570404
Bus103,251.989048,-0.524045,251.967799,3.664554,252.093172,1.570381
Bus104,251.659740,-0.523653,251.649763,3.664556,251.920344,1.570510
Bus105,251.658041,-0.523650,251.647825,3.664555,251.920281,1.570510
Bus106,251.823988,-0.523801,251.779687,3.664561,252.015454,1.570404
Bus107,251.659707,-0.523654,251.649812,3.664556,251.920101,1.570510
Bus108,251.657062,-0.523648,251.646749,3.664555,251.920132,1.570510
Bus109,251.823988,-0.523801,251.779687,3.664561,252.015454,1.570404
Bus110,251.659669,-0.523654,251.649868,3.664556,251.919820,1.570510
Bus111,251.618432,-0.523577,251.604277,3.664539,251.914253,1.570510
Bus112,251.823988,-0.523801,251.779687,3.664561,252.015454,1.570404
Bus113,251.659611,-0.523655,251.649954,3.664557,251.919392,1.570510
Bus114,251.614562,-0.523570,251.600023,3.664538,251.913664,1.570510
Bus115,251.823988,-0.523801,251.779687,3.664561,252.015454,1.570404
Bus116,251.659536,-0.523656,251.650064,3.664557,251.918841,1.570510
Bus117,251.614425,-0.523570,251.599976,3.664538,251.913645,1.570510
Bus118,251.603878,-0.523553,251.587273,3.664530,251.912060,1.570506
Bus119,251.823988,-0.523801,251.779687,3.664561,252.015454,1.570404
Bus120,251.659483,-0.523657,251.650143,3.664557,251.918446,1.570509
Bus121,251.614425,-0.523570,251.599976,3.664538,251.913645,1.570510
Bus122,251.614357,-0.523570,251.599953,3.664538,251.913635,1.570510
Bus123,251.584611,-0.523522,251.564279,3.664516,251.909167,1.570500
Bus124,251.823988,-0.523801,251.779687,3.664561,252.015454,1.570404
Bus125,251.659407,-0.523658,251.650254,3.664558,251.917887,1.570509
Bus126,251.614425,-0.523570,251.599976,3.664538,251.913645,1.570510
Bus127,251.614042,-0.523570,251.599846,3.664537,251.913589,1.570510
Bus128,251.575947,-0.523509,251.553939,3.664510,251.907866,1.570497
Bus129,251.823988,-0.523801,251.779687,3.664561,252.015454,1.570404
Bus130,251.659325,-0.523659,251.650375,3.664558,251.917282,1.570509
Bus131,251.614425,-0.523570,251.599976,3.664538,251.913645,1.570510
Bus132,251.610229,-0.523567,251.599857,3.664537,251.913631,1.570510
Bus133,251.614279,-0.523571,251.599424,3.664537,251.913112,1.570509
Bus134,251.573369,-0.523505,251.550863,3.664508,251.907479,1.570497
Bus135,251.823988,-0.523801,251.779687,3.664561,252.015454,1.570404
Bus136,251.659248,-0.523660,251.650489,3.664559,251.916712,1.570509
Bus137,251.614425,-0.523570,251.599976,3.664538,251.913645,1.570510
Bus138,251.609901,-0.523566,251.599858,3.664537,251.913635,1.570510
Bus139,251.614454,-0.523571,251.599111,3.664538,251.912756,1.570508
Bus140,251.570459,-0.523500,251.547390,3.664506,251.907042,1.570496
Bus141,251.823988,-0.523801,251.779687,3.664561,252.015454,1.570404
Bus142,251.659121,-0.523661,251.650676,3.664559,251.915775,1.570509
Bus143,251.614425,-0.523570,251.599976,3.664538,251.913645,1.570510
Bus144,251.609578,-0.523566,251.599859,3.664537,251.913638,1.570510
Bus145,251.614572,-0.523571,251.598901,3.664538,251.912518,1.570507
Bus146,251.567723,-0.523496,251.544124,3.664504,251.906632,1.570495
Bus147,251.823988,-0.523801,251.779687,3.664561,252.015454,1.570404
Bus148,251.658517,-0.523669,251.651566,3.664563,251.911318,1.570507
Bus149,251.614425,-0.523570,251.599976,3.664538,251.913645,1.570510
Bus150,251.609318,-0.523566,251.599860,3.664537,251.913641,1.570510
Bus151,251.614600,-0.523571,251.598983,3.664538,251.912251,1.570507
Bus152,251.614601,-0.523571,251.596243,3.664541,251.912526,1.570507
Bus153,251.564530,-0.523491,251.540314,3.664501,251.906152,1.570494
Bus154,251.823988,-0.523801,251.779687,3.664561,252.015454,1.570404
Bus155,251.658385,-0.523671,251.651760,3.664563,251.910348,1.570507
Bus156,251.614425,-0.523570,251.599976,3.664538,251.913645,1.570510
Bus157,251.608928,-0.523565,251.599861,3.664537,251.913645,1.570510
Bus158,251.614673,-0.523572,251.599202,3.664539,251.911541,1.570507
Bus159,251.614603,-0.523571,251.596081,3.664541,251.912527,1.570507
Bus160,251.563611,-0.523489,251.539217,3.664501,251.906014,1.570493
Bus161,251.823988,-0.523801,251.779687,3.664561,252.015454,1.570404
Bus162,251.658419,-0.523671,251.648692,3.664566,251.910357,1.570507
Bus163,251.657821,-0.523677,251.652712,3.664566,251.906654,1.570506
Bus164,251.614425,-0.523570,251.599976,3.664538,251.913645,1.570510
Bus165,251.608457,-0.523565,251.599862,3.664537,251.913650,1.570510
Bus166,251.614698,-0.523573,251.599278,3.664539,251.911294,1.570507
Bus167,251.614605,-0.523571,251.595933,3.664541,251.912527,1.570507
Bus168,251.558391,-0.523481,251.532987,3.664497,251.905230,1.570492
Bus169,251.823988,-0.523801,251.779687,3.664561,252.015454,1.570404
Bus170,251.658425,-0.523670,251.648112,3.664567,251.910359,1.570507
Bus171,251.657071,-0.523686,251.653975,3.664570,251.901749,1.570505
Bus172,251.614425,-0.523570,251.599976,3.664538,251.913645,1.570510
Bus173,251.608101,-0.523565,251.599864,3.664537,251.913654,1.570510
Bus174,251.614698,-0.523573,251.599278,3.664539,251.911294,1.570507
Bus175,251.614704,-0.523573,251.599300,3.664540,251.909299,1.570509
Bus176,251.614605,-0.523571,251.595872,3.664541,251.912527,1.570507
Bus177,251.555442,-0.523476,251.529469,3.664495,251.904788,1.570491
Bus178,251.658438,-0.523670,251.646916,3.664568,251.910362,1.570507
Bus179,251.656851,-0.523686,251.653907,3.664569,251.901836,1.570505
Bus180,251.657106,-0.523687,251.654104,3.664570,251.889903,1.570517
Bus181,251.614425,-0.523570,251.599976,3.664538,251.913645,1.570510
Bus182,251.607690,-0.523564,251.599865,3.664537,251.913659,1.570510
Bus183,251.614698,-0.523573,251.599278,3.664539,251.911294,1.570507
Bus184,251.614705,-0.523573,251.599302,3.664540,251.909083,1.570509
Bus185,251.614607,-0.523571,251.595740,3.664541,251.912528,1.570507
Bus186,251.553254,-0.523473,251.526857,3.664493,251.904459,1.570490
Bus187,251.655984,-0.523686,251.653638,3.664568,251.902176,1.570506
Bus188,251.657253,-0.523689,251.654640,3.664572,251.840875,1.570565
Bus189,251.614425,-0.523570,251.599976,3.664538,251.913645,1.570510
Bus190,251.607303,-0.523564,251.599866,3.664537,251.913663,1.570510
Bus191,251.614698,-0.523573,251.599278,3.664539,251.911294,1.570507
Bus192,251.614698,-0.523573,251.599278,3.664539,251.911294,1.570507
Bus193,251.614705,-0.523573,251.599304,3.664540,251.908875,1.570509
Bus194,251.614610,-0.523571,251.595402,3.664541,251.912529,1.570507
Bus195,251.551286,-0.523470,251.524509,3.664492,251.904164,1.570489
Bus196,251.654437,-0.523686,251.653158,3.664565,251.902783,1.570507
Bus197,251.657269,-0.523690,251.654697,3.664572,251.835656,1.570570
Bus198,251.657261,-0.523690,251.654668,3.664572,251.838353,1.570567
Bus199,251.614425,-0.523570,251.599976,3.664538,251.913645,1.570510
Bus200,251.606886,-0.523563,251.599867,3.664537,251.913668,1.570510
...
SourceBus_1,6667.732718,-0.000156,6667.751900,4.188673,6667.968884,2.094256
LOAD1,251.934284,-0.523967,251.924830,3.664546,252.080683,1.570385
LOAD2,251.879595,-0.523848,251.758323,3.664630,252.042625,1.570362
LOAD3,251.919059,-0.523952,251.924875,3.664546,252.080849,1.570386
LOAD4,251.717657,-0.523704,251.716191,3.664542,251.971467,1.570468
LOAD5,251.711925,-0.523698,251.716208,3.664542,251.971530,1.570468
LOAD6,251.879279,-0.523849,251.787177,3.664602,252.042538,1.570364
LOAD7,251.658438,-0.523670,251.646916,3.664568,251.910362,1.570507
LOAD8,251.657309,-0.523691,251.654842,3.664573,251.822461,1.570583
LOAD9,251.629792,-0.523661,251.653232,3.664563,251.903053,1.570508
LOAD10,251.654709,-0.523685,251.644276,3.664573,251.902868,1.570505
LOAD11,251.654706,-0.523685,251.644477,3.664572,251.902868,1.570505
LOAD12,251.657308,-0.523691,251.654841,3.664573,251.822531,1.570583
LOAD13,251.614656,-0.523571,251.591275,3.664546,251.912541,1.570507
LOAD14,251.599725,-0.523556,251.599889,3.664536,251.913746,1.570511
LOAD15,251.614649,-0.523571,251.591898,3.664545,251.912539,1.570507
LOAD16,251.614718,-0.523573,251.599351,3.664540,251.904599,1.570514
LOAD17,251.614715,-0.523573,251.599340,3.664540,251.905598,1.570513
LOAD18,251.437854,-0.523294,251.436241,3.664375,251.908685,1.570514
LOAD19,251.520686,-0.523421,251.487522,3.664470,251.895615,1.570482
LOAD20,251.469837,-0.523345,251.455384,3.664419,251.904319,1.570492
LOAD21,251.529078,-0.523436,251.501722,3.664477,251.901329,1.570483
LOAD22,251.468909,-0.523345,251.455387,3.664419,251.904329,1.570492
LOAD23,251.415054,-0.523255,251.378518,3.664390,251.917526,1.570519
LOAD24,251.502771,-0.523382,251.451905,3.664468,251.885801,1.570461
LOAD25,251.201968,-0.523100,251.434924,3.664039,251.948336,1.570782
LOAD26,251.484130,-0.523290,251.362473,3.664494,251.875880,1.570367
LOAD27,251.498928,-0.523367,251.433546,3.664477,251.872289,1.570451
LOAD28,251.498920,-0.523366,251.433516,3.664476,251.875095,1.570448
LOAD29,251.079821,-0.522995,251.437325,3.663962,251.954524,1.570851
LOAD30,251.202158,-0.523100,251.434924,3.664039,251.948334,1.570782
LOAD31,251.100377,-0.523016,251.437263,3.663963,251.954299,1.570850
LOAD32,251.479508,-0.523269,251.344755,3.664497,251.869199,1.570352
LOAD33,251.161203,-0.523095,251.435764,3.663995,251.919358,1.570868
LOAD34,251.243265,-0.523127,251.432620,3.664109,251.942240,1.570721
LOAD35,251.161601,-0.523091,251.430350,3.663999,251.937156,1.570848
LOAD36,251.160208,-0.523083,251.426479,3.663993,251.943200,1.570847
LOAD37,251.160207,-0.523083,251.426588,3.663993,251.943199,1.570847
LOAD38,251.474048,-0.523242,251.306702,3.664515,251.870529,1.570324
LOAD39,251.467302,-0.523216,251.295991,3.664506,251.860177,1.570306
LOAD40,251.462190,-0.523189,251.270098,3.664513,251.863429,1.570277
LOAD41,251.445961,-0.523079,251.134205,3.664606,251.852666,1.570193
LOAD42,251.467304,-0.523216,251.295995,3.664506,251.859763,1.570306
LOAD43,251.419933,-0.523073,251.177933,3.664545,251.814178,1.570251
LOAD44,251.482415,-0.523282,251.354480,3.664496,251.874767,1.570360
LOAD45,251.446089,-0.523079,251.122525,3.664617,251.852702,1.570192
LOAD46,251.458742,-0.523223,251.316110,3.664500,251.869777,1.570321
LOAD47,251.419961,-0.523073,251.178034,3.664546,251.804936,1.570260
LOAD48,251.459313,-0.523224,251.316108,3.664500,251.869771,1.570321
LOAD49,251.458002,-0.523223,251.316112,3.664499,251.869785,1.570321
LOAD50,251.393498,-0.522985,251.109058,3.664542,251.856882,1.570202
LOAD51,251.446456,-0.523138,251.238841,3.664523,251.859863,1.570247
LOAD52,251.337658,-0.522960,251.157594,3.664497,251.854828,1.570232
LOAD53,251.393498,-0.522985,251.118723,3.664532,251.856882,1.570202
LOAD54,251.445065,-0.523137,251.238845,3.664523,251.859878,1.570248
LOAD55,251.354831,-0.522974,251.157775,3.664494,251.855482,1.570234
